[General]
network = Playground
num-rngs = 4 
sim-time-limit = 95000s
warmup-period = 20000s
**.vector-recording = true
**.entry.rng-0 = 1
**.entry.rng-1 = 2 
**.entry.rng-2 = 3
repeat = 8
seed-set = ${repetition}
**.in_mgr.seat_num = 10
**.in_mgr.ride_time = 5s 
**.entry.meanInterArrival = 0.5s
**.entry.Q = 10s
**.owner.threshold = 10

[Config Test1]
**.entry.Q = 2s #child patience minimum time
**.owner.threshold = 1 #owner patience minimum sits

[Config Test2]
**.entry.Q = 2s #child patience minimum time
**.owner.threshold = 10 #owner patience minimum sits

[Config Test3]
**.entry.Q = 10s #child patience minimum time 
**.owner.threshold = 1 #owner patience minimum sits

[Config Test4]
**.entry.Q = 10s
**.owner.threshold = 10

[Config TestBurstArrival]
**.entry.burstArrival = true
**.entry.meanInterArrival = 1s
**.entry.Q = 4s #child patience minimum time
**.in_mgr.ride_time = 6s 
**.owner.threshold = 4 #owner patience minimum time
**.in_mgr.seat_num = 6
 
 
[Config Validation1] #Validation queue (non burst)
**.entry.burstArrival = false
**.entry.meanInterArrival = 0.1s #very high interarrival 
**.entry.Q = 200s #very high patience 
**.owner.threshold = 200 #very high threshold - MGR never starts

[Config Validation2] #Validation drop-out (non burst)
**.entry.burstArrival = false
**.entry.meanInterArrival = 0.1s #very high interarrival
**.entry.Q = 1s #very low patience
**.owner.threshold = 200 #very high threshold - MGR never starts

[Config Validation3] #Validation Owner - MGR (non burst)
**.entry.burstArrival = false
**.entry.meanInterArrival = 1s
**.entry.Q = 500s #very high patience
**.in_mgr.ride_time = 5s 
**.owner.threshold = 6
**.in_mgr.seat_num = 6 #owner will serve everyone


[Config Burst_Test1]
**.entry.burstArrival = true
**.entry.Q = 2s #child patience minimum time
**.owner.threshold = 1 #owner patience minimum sits

[Config Burst_Test2]
**.entry.burstArrival = true
**.entry.Q = 2s #child patience minimum time
**.owner.threshold = 10 #owner patience minimum sits

[Config Burst_Test3]
**.entry.burstArrival = true
**.entry.Q = 10s #child patience minimum time 
**.owner.threshold = 1 #owner patience minimum sits

[Config Burst_Test4]
**.entry.burstArrival = true
**.entry.Q = 10s
**.owner.threshold = 10

[Config TestI] #parameter tuning
sim-time-limit = 10000s
warmup-period = 10s
**.entry.meanInterArrival = 0.1s
**.entry.Q = 2s #child patience minimum time
**.owner.threshold = 2 #owner patience minimum sits

[Config Testj] #parameter tuning
sim-time-limit = 10000s
warmup-period = 10s
**.entry.meanInterArrival = 2.5s
**.entry.Q = 100s #child patience minimum time
**.owner.threshold = 10 #owner patience minimum sits

[Config TestK] #parameter tuning
sim-time-limit = 450000s
warmup-period = 10000s
**.entry.meanInterArrival = 0.5s
**.entry.Q = 2s #child patience minimum time
**.owner.threshold = 2 #owner patience minimum sits